LTspice 24.0.12 for Windows
Circuit: * C:\Users\KMI3BP\Documents\SZAKDOLGOZAT\DOKUMENTUMOK\SPICE\Draft3.asc
Start Time: Mon Mar 24 19:35:05 2025
solver = Normal
Maximum thread count: 8
tnom = 27
temp = 27
method = modified trap
.OP point found by inspection.
Total elapsed time: 0.036 seconds.

